4MUB_OAQ_A_302
  RCSB PDB12061713473D
Coordinates from PDB:4MUB:A:302 Model:1 without hydrogens
 20 21  0  0  0  0            999 V2000
  111.9740    7.2990   14.8620   C 0  0  0  0  0  0  0  0  0  0  0  0
  112.4430    7.7970   13.6210   C 0  0  0  0  0  0  0  0  0  0  0  0
  111.7210    8.8630   12.9340   C 0  0  0  0  0  0  0  0  0  0  0  0
  110.5320    9.4110   13.5260   C 0  0  0  0  0  0  0  0  0  0  0  0
  110.0430    8.8850   14.8280   C 0  0  0  0  0  0  0  0  0  0  0  0
  110.7480    7.8610   15.4680   C 0  0  0  0  0  0  0  0  0  0  0  0
  108.2060    8.7090   16.5280   C 0  0  0  0  0  0  0  0  0  0  0  0
  108.8580    7.5310   17.1260   C 0  0  0  0  0  0  0  0  0  0  0  0
  110.2840    7.2690   16.8210   C 0  0  0  0  0  0  0  0  0  0  0  0
  113.7030    7.1800   13.0630   C 0  0  0  0  0  0  0  0  0  0  0  0
  107.6130    9.6110   17.6070   C 0  0  0  0  0  0  0  0  0  0  0  0
  106.0750    7.7220   19.4870   C 0  0  0  0  0  0  0  0  0  0  0  0
  104.2040    9.2580   19.0550   C 0  0  0  0  0  0  0  0  0  0  0  0
  105.7190    9.0900   19.0370   C 0  0  0  0  0  0  0  0  0  0  0  0
  108.8240    9.4340   15.4480   N 0  0  0  0  0  0  0  0  0  0  0  0
  112.1940    9.3930   11.6790   N 0  3  0  0  0  0  0  0  0  0  0  0
  106.2020    9.3010   17.6750   N 0  0  0  0  0  0  0  0  0  0  0  0
  112.2900   10.6830   11.5420   O 0  5  0  0  0  0  0  0  0  0  0  0
  112.5350    8.6180   10.6840   O 0  0  0  0  0  0  0  0  0  0  0  0
  114.2430    6.3960   14.0380   O 0  0  0  0  0  0  0  0  0  0  0  0
 19 16  2  0  0  0  0
 18 16  1  0  0  0  0
 16  3  1  0  0  0  0
  3  4  2  0  0  0  0
  3  2  1  0  0  0  0
 10  2  1  0  0  0  0
 10 20  1  0  0  0  0
  4  5  1  0  0  0  0
  2  1  2  0  0  0  0
  5 15  1  0  0  0  0
  5  6  2  0  0  0  0
  1  6  1  0  0  0  0
 15  7  1  0  0  0  0
  6  9  1  0  0  0  0
  7  8  1  0  0  0  0
  7 11  1  0  0  0  0
  9  8  1  0  0  0  0
 11 17  1  0  0  0  0
 17 14  1  0  0  0  0
 14 13  1  0  0  0  0
 14 12  1  0  0  0  0
M  CHG  2  16   1  18  -1
M  END
>  <InstanceId>
4MUB_OAQ_A_302

>  <ChemCompId>
OAQ

>  <PdbId>
4MUB

>  <ChainId>
A

>  <ResidueNumber>
302

>  <InsertionCode>


>  <Model>
1

>  <AltIds>


>  <MissingHeavyAtoms>
0

>  <ObservedFormula>
C14 N3 O3

>  <Name>
{(2S)-7-nitro-2-[(propan-2-ylamino)methyl]-1,2,3,4-tetrahydroquinolin-6-yl}methanol

>  <SystematicName>
[(2S)-7-nitro-2-[(propan-2-ylamino)methyl]-1,2,3,4-tetrahydroquinolin-6-yl]methanol

>  <Synonyms>
Oxamniquine

>  <Type>
NON-POLYMER

>  <Formula>
C14 H21 N3 O3

>  <MolecularWeight>
279.335

>  <ModifiedDate>
2013-12-13

>  <Parent>


>  <OneLetterCode>


>  <SubcomponentList>


>  <AmbiguousFlag>
N

>  <InChI>
InChI=1S/C14H21N3O3/c1-9(2)15-7-12-4-3-10-5-11(8-18)14(17(19)20)6-13(10)16-12/h5-6,9,12,15-16,18H,3-4,7-8H2,1-2H3/t12-/m0/s1

>  <InChIKey>
XCGYUJZMCCFSRP-LBPRGKRZSA-N

>  <SMILES>
CC(C)NC[C@@H]1CCc2cc(c(cc2N1)[N+](=O)[O-])CO

$$$$
5BYK_OAQ_A_302
  RCSB PDB12061717003D
Coordinates from PDB:5BYK:A:302 Model:1 without hydrogens
 20 21  0  0  0  0            999 V2000
  112.6340    7.2370   14.9240   C 0  0  0  0  0  0  0  0  0  0  0  0
  113.1810    7.6150   13.7000   C 0  0  0  0  0  0  0  0  0  0  0  0
  112.5120    8.5840   12.9360   C 0  0  0  0  0  0  0  0  0  0  0  0
  111.3330    9.1530   13.3900   C 0  0  0  0  0  0  0  0  0  0  0  0
  110.7860    8.7640   14.6080   C 0  0  0  0  0  0  0  0  0  0  0  0
  111.4360    7.8000   15.3750   C 0  0  0  0  0  0  0  0  0  0  0  0
  108.8010    8.6420   16.0870   C 0  0  0  0  0  0  0  0  0  0  0  0
  109.4100    7.2860   16.4250   C 0  0  0  0  0  0  0  0  0  0  0  0
  110.9010    7.4050   16.5930   C 0  0  0  0  0  0  0  0  0  0  0  0
  114.3810    7.0350   13.2670   C 0  0  0  0  0  0  0  0  0  0  0  0
  108.5560    9.4580   17.3630   C 0  0  0  0  0  0  0  0  0  0  0  0
  108.0510    8.1890   19.9820   C 0  0  0  0  0  0  0  0  0  0  0  0
  105.6630    8.8920   19.7480   C 0  0  0  0  0  0  0  0  0  0  0  0
  107.1010    9.1770   19.3190   C 0  0  0  0  0  0  0  0  0  0  0  0
  109.5840    9.3420   15.0440   N 0  0  0  0  0  0  0  0  0  0  0  0
  113.0220    8.9910   11.7600   N 0  3  0  0  0  0  0  0  0  0  0  0
  107.2030    9.1250   17.8560   N 0  0  0  0  0  0  0  0  0  0  0  0
  112.9640   10.2640   11.5120   O 0  5  0  0  0  0  0  0  0  0  0  0
  113.5550    8.0500   10.7510   O 0  0  0  0  0  0  0  0  0  0  0  0
  114.9510    6.1890   14.2650   O 0  0  0  0  0  0  0  0  0  0  0  0
 19 16  2  0  0  0  0
 18 16  1  0  0  0  0
 16  3  1  0  0  0  0
  3  4  2  0  0  0  0
  3  2  1  0  0  0  0
 10  2  1  0  0  0  0
 10 20  1  0  0  0  0
  4  5  1  0  0  0  0
  2  1  2  0  0  0  0
  5 15  1  0  0  0  0
  5  6  2  0  0  0  0
  1  6  1  0  0  0  0
 15  7  1  0  0  0  0
  6  9  1  0  0  0  0
  7  8  1  0  0  0  0
  7 11  1  0  0  0  0
  9  8  1  0  0  0  0
 11 17  1  0  0  0  0
 17 14  1  0  0  0  0
 14 13  1  0  0  0  0
 14 12  1  0  0  0  0
M  CHG  2  16   1  18  -1
M  END
>  <InstanceId>
5BYK_OAQ_A_302

>  <ChemCompId>
OAQ

>  <PdbId>
5BYK

>  <ChainId>
A

>  <ResidueNumber>
302

>  <InsertionCode>


>  <Model>
1

>  <AltIds>


>  <MissingHeavyAtoms>
0

>  <ObservedFormula>
C14 N3 O3

>  <Name>
{(2S)-7-nitro-2-[(propan-2-ylamino)methyl]-1,2,3,4-tetrahydroquinolin-6-yl}methanol

>  <SystematicName>
[(2S)-7-nitro-2-[(propan-2-ylamino)methyl]-1,2,3,4-tetrahydroquinolin-6-yl]methanol

>  <Synonyms>
Oxamniquine

>  <Type>
NON-POLYMER

>  <Formula>
C14 H21 N3 O3

>  <MolecularWeight>
279.335

>  <ModifiedDate>
2013-12-13

>  <Parent>


>  <OneLetterCode>


>  <SubcomponentList>


>  <AmbiguousFlag>
N

>  <InChI>
InChI=1S/C14H21N3O3/c1-9(2)15-7-12-4-3-10-5-11(8-18)14(17(19)20)6-13(10)16-12/h5-6,9,12,15-16,18H,3-4,7-8H2,1-2H3/t12-/m0/s1

>  <InChIKey>
XCGYUJZMCCFSRP-LBPRGKRZSA-N

>  <SMILES>
CC(C)NC[C@@H]1CCc2cc(c(cc2N1)[N+](=O)[O-])CO

$$$$
5TIW_OAQ_A_302
  RCSB PDB12061719423D
Coordinates from PDB:5TIW:A:302 Model:1 without hydrogens
 20 21  0  0  0  0            999 V2000
   12.5590   18.4890    3.9730   C 0  0  0  0  0  0  0  0  0  0  0  0
   13.3180   17.4380    4.4610   C 0  0  0  0  0  0  0  0  0  0  0  0
   14.2150   16.7990    3.5910   C 0  0  0  0  0  0  0  0  0  0  0  0
   14.3180   17.2190    2.2670   C 0  0  0  0  0  0  0  0  0  0  0  0
   13.5490   18.2700    1.7960   C 0  0  0  0  0  0  0  0  0  0  0  0
   12.6670   18.9070    2.6580   C 0  0  0  0  0  0  0  0  0  0  0  0
   12.9650   19.9130    0.0450   C 0  0  0  0  0  0  0  0  0  0  0  0
   12.6450   20.7800    1.2290   C 0  0  0  0  0  0  0  0  0  0  0  0
   11.8770   19.9570    2.2290   C 0  0  0  0  0  0  0  0  0  0  0  0
   13.1030   17.1400    5.8030   C 0  0  0  0  0  0  0  0  0  0  0  0
   13.8280   20.7300   -0.9070   C 0  0  0  0  0  0  0  0  0  0  0  0
   12.2090   22.3700   -3.8400   C 0  0  0  0  0  0  0  0  0  0  0  0
   12.7030   23.1510   -1.5250   C 0  0  0  0  0  0  0  0  0  0  0  0
   12.2960   21.9380   -2.3750   C 0  0  0  0  0  0  0  0  0  0  0  0
   13.6760   18.6920    0.4650   N 0  0  0  0  0  0  0  0  0  0  0  0
   14.9980   15.7720    3.9520   N 0  3  0  0  0  0  0  0  0  0  0  0
   13.2300   20.8030   -2.2450   N 0  0  0  0  0  0  0  0  0  0  0  0
   15.8530   15.3170    2.9860   O 0  5  0  0  0  0  0  0  0  0  0  0
   14.9390   15.0890    5.2760   O 0  0  0  0  0  0  0  0  0  0  0  0
   12.7970   18.3670    6.4730   O 0  0  0  0  0  0  0  0  0  0  0  0
 19 16  2  0  0  0  0
 18 16  1  0  0  0  0
 16  3  1  0  0  0  0
  3  4  2  0  0  0  0
  3  2  1  0  0  0  0
 10  2  1  0  0  0  0
 10 20  1  0  0  0  0
  4  5  1  0  0  0  0
  2  1  2  0  0  0  0
  5 15  1  0  0  0  0
  5  6  2  0  0  0  0
  1  6  1  0  0  0  0
 15  7  1  0  0  0  0
  6  9  1  0  0  0  0
  7  8  1  0  0  0  0
  7 11  1  0  0  0  0
  9  8  1  0  0  0  0
 11 17  1  0  0  0  0
 17 14  1  0  0  0  0
 14 13  1  0  0  0  0
 14 12  1  0  0  0  0
M  CHG  2  16   1  18  -1
M  END
>  <InstanceId>
5TIW_OAQ_A_302

>  <ChemCompId>
OAQ

>  <PdbId>
5TIW

>  <ChainId>
A

>  <ResidueNumber>
302

>  <InsertionCode>


>  <Model>
1

>  <AltIds>


>  <MissingHeavyAtoms>
0

>  <ObservedFormula>
C14 N3 O3

>  <Name>
{(2S)-7-nitro-2-[(propan-2-ylamino)methyl]-1,2,3,4-tetrahydroquinolin-6-yl}methanol

>  <SystematicName>
[(2S)-7-nitro-2-[(propan-2-ylamino)methyl]-1,2,3,4-tetrahydroquinolin-6-yl]methanol

>  <Synonyms>
Oxamniquine

>  <Type>
NON-POLYMER

>  <Formula>
C14 H21 N3 O3

>  <MolecularWeight>
279.335

>  <ModifiedDate>
2013-12-13

>  <Parent>


>  <OneLetterCode>


>  <SubcomponentList>


>  <AmbiguousFlag>
N

>  <InChI>
InChI=1S/C14H21N3O3/c1-9(2)15-7-12-4-3-10-5-11(8-18)14(17(19)20)6-13(10)16-12/h5-6,9,12,15-16,18H,3-4,7-8H2,1-2H3/t12-/m0/s1

>  <InChIKey>
XCGYUJZMCCFSRP-LBPRGKRZSA-N

>  <SMILES>
CC(C)NC[C@@H]1CCc2cc(c(cc2N1)[N+](=O)[O-])CO

$$$$
5TIW_OAQ_B_302
  RCSB PDB12061719423D
Coordinates from PDB:5TIW:B:302 Model:1 without hydrogens
 20 21  0  0  0  0            999 V2000
  -20.5290   18.6100   28.0820   C 0  0  0  0  0  0  0  0  0  0  0  0
  -19.8760   17.4190   28.3860   C 0  0  0  0  0  0  0  0  0  0  0  0
  -18.9810   16.8960   27.4360   C 0  0  0  0  0  0  0  0  0  0  0  0
  -18.7790   17.5720   26.2340   C 0  0  0  0  0  0  0  0  0  0  0  0
  -19.4430   18.7600   25.9540   C 0  0  0  0  0  0  0  0  0  0  0  0
  -20.3240   19.2910   26.8880   C 0  0  0  0  0  0  0  0  0  0  0  0
  -19.9160   20.6870   24.4440   C 0  0  0  0  0  0  0  0  0  0  0  0
  -20.2080   21.4190   25.7440   C 0  0  0  0  0  0  0  0  0  0  0  0
  -21.0140   20.4880   26.6460   C 0  0  0  0  0  0  0  0  0  0  0  0
  -20.1800   16.8440   29.6350   C 0  0  0  0  0  0  0  0  0  0  0  0
  -19.0820   21.5730   23.5080   C 0  0  0  0  0  0  0  0  0  0  0  0
  -19.1240   20.3400   19.9320   C 0  0  0  0  0  0  0  0  0  0  0  0
  -19.7160   22.5750   20.9080   C 0  0  0  0  0  0  0  0  0  0  0  0
  -19.5830   21.0790   21.1950   C 0  0  0  0  0  0  0  0  0  0  0  0
  -19.2160   19.4190   24.7370   N 0  0  0  0  0  0  0  0  0  0  0  0
  -18.2980   15.7480   27.6200   N 0  3  0  0  0  0  0  0  0  0  0  0
  -18.6530   20.8300   22.3040   N 0  0  0  0  0  0  0  0  0  0  0  0
  -17.7170   15.1490   26.4550   O 0  5  0  0  0  0  0  0  0  0  0  0
  -18.0730   15.1610   28.8820   O 0  0  0  0  0  0  0  0  0  0  0  0
  -21.1320   17.6580   30.3280   O 0  0  0  0  0  0  0  0  0  0  0  0
 19 16  2  0  0  0  0
 18 16  1  0  0  0  0
 16  3  1  0  0  0  0
  3  4  2  0  0  0  0
  3  2  1  0  0  0  0
 10  2  1  0  0  0  0
 10 20  1  0  0  0  0
  4  5  1  0  0  0  0
  2  1  2  0  0  0  0
  5 15  1  0  0  0  0
  5  6  2  0  0  0  0
  1  6  1  0  0  0  0
 15  7  1  0  0  0  0
  6  9  1  0  0  0  0
  7  8  1  0  0  0  0
  7 11  1  0  0  0  0
  9  8  1  0  0  0  0
 11 17  1  0  0  0  0
 17 14  1  0  0  0  0
 14 13  1  0  0  0  0
 14 12  1  0  0  0  0
M  CHG  2  16   1  18  -1
M  END
>  <InstanceId>
5TIW_OAQ_B_302

>  <ChemCompId>
OAQ

>  <PdbId>
5TIW

>  <ChainId>
B

>  <ResidueNumber>
302

>  <InsertionCode>


>  <Model>
1

>  <AltIds>


>  <MissingHeavyAtoms>
0

>  <ObservedFormula>
C14 N3 O3

>  <Name>
{(2S)-7-nitro-2-[(propan-2-ylamino)methyl]-1,2,3,4-tetrahydroquinolin-6-yl}methanol

>  <SystematicName>
[(2S)-7-nitro-2-[(propan-2-ylamino)methyl]-1,2,3,4-tetrahydroquinolin-6-yl]methanol

>  <Synonyms>
Oxamniquine

>  <Type>
NON-POLYMER

>  <Formula>
C14 H21 N3 O3

>  <MolecularWeight>
279.335

>  <ModifiedDate>
2013-12-13

>  <Parent>


>  <OneLetterCode>


>  <SubcomponentList>


>  <AmbiguousFlag>
N

>  <InChI>
InChI=1S/C14H21N3O3/c1-9(2)15-7-12-4-3-10-5-11(8-18)14(17(19)20)6-13(10)16-12/h5-6,9,12,15-16,18H,3-4,7-8H2,1-2H3/t12-/m0/s1

>  <InChIKey>
XCGYUJZMCCFSRP-LBPRGKRZSA-N

>  <SMILES>
CC(C)NC[C@@H]1CCc2cc(c(cc2N1)[N+](=O)[O-])CO

$$$$
5TIY_OAQ_A_302
  RCSB PDB12061719423D
Coordinates from PDB:5TIY:A:302 Model:1 without hydrogens
 20 21  0  0  0  0            999 V2000
    6.5800   22.1380   17.4390   C 0  0  0  0  0  0  0  0  0  0  0  0
    6.1080   21.5580   16.2510   C 0  0  0  0  0  0  0  0  0  0  0  0
    7.0340   20.7850   15.5170   C 0  0  0  0  0  0  0  0  0  0  0  0
    8.3490   20.5970   15.9580   C 0  0  0  0  0  0  0  0  0  0  0  0
    8.7750   21.1650   17.1360   C 0  0  0  0  0  0  0  0  0  0  0  0
    7.9000   21.9350   17.8910   C 0  0  0  0  0  0  0  0  0  0  0  0
   10.6050   21.5090   18.8050   C 0  0  0  0  0  0  0  0  0  0  0  0
    9.4430   21.6580   19.8110   C 0  0  0  0  0  0  0  0  0  0  0  0
    8.3520   22.5250   19.1120   C 0  0  0  0  0  0  0  0  0  0  0  0
    4.7640   21.8250   15.8850   C 0  0  0  0  0  0  0  0  0  0  0  0
   11.8020   20.6570   19.3550   C 0  0  0  0  0  0  0  0  0  0  0  0
   15.3380   21.5950   18.2230   C 0  0  0  0  0  0  0  0  0  0  0  0
   13.8980   22.1720   20.2090   C 0  0  0  0  0  0  0  0  0  0  0  0
   13.8670   21.8060   18.7280   C 0  0  0  0  0  0  0  0  0  0  0  0
   10.0850   20.9460   17.5530   N 0  0  0  0  0  0  0  0  0  0  0  0
    6.7170   20.1640   14.3660   N 0  3  0  0  0  0  0  0  0  0  0  0
   12.9370   20.6910   18.4090   N 0  0  0  0  0  0  0  0  0  0  0  0
    7.7550   19.4480   13.7600   O 0  5  0  0  0  0  0  0  0  0  0  0
    5.4610   20.1770   13.7990   O 0  0  0  0  0  0  0  0  0  0  0  0
    4.0800   22.3930   17.0020   O 0  0  0  0  0  0  0  0  0  0  0  0
 19 16  2  0  0  0  0
 18 16  1  0  0  0  0
 16  3  1  0  0  0  0
  3  4  2  0  0  0  0
  3  2  1  0  0  0  0
 10  2  1  0  0  0  0
 10 20  1  0  0  0  0
  4  5  1  0  0  0  0
  2  1  2  0  0  0  0
  5 15  1  0  0  0  0
  5  6  2  0  0  0  0
  1  6  1  0  0  0  0
 15  7  1  0  0  0  0
  6  9  1  0  0  0  0
  7  8  1  0  0  0  0
  7 11  1  0  0  0  0
  9  8  1  0  0  0  0
 11 17  1  0  0  0  0
 17 14  1  0  0  0  0
 14 13  1  0  0  0  0
 14 12  1  0  0  0  0
M  CHG  2  16   1  18  -1
M  END
>  <InstanceId>
5TIY_OAQ_A_302

>  <ChemCompId>
OAQ

>  <PdbId>
5TIY

>  <ChainId>
A

>  <ResidueNumber>
302

>  <InsertionCode>


>  <Model>
1

>  <AltIds>


>  <MissingHeavyAtoms>
0

>  <ObservedFormula>
C14 N3 O3

>  <Name>
{(2S)-7-nitro-2-[(propan-2-ylamino)methyl]-1,2,3,4-tetrahydroquinolin-6-yl}methanol

>  <SystematicName>
[(2S)-7-nitro-2-[(propan-2-ylamino)methyl]-1,2,3,4-tetrahydroquinolin-6-yl]methanol

>  <Synonyms>
Oxamniquine

>  <Type>
NON-POLYMER

>  <Formula>
C14 H21 N3 O3

>  <MolecularWeight>
279.335

>  <ModifiedDate>
2013-12-13

>  <Parent>


>  <OneLetterCode>


>  <SubcomponentList>


>  <AmbiguousFlag>
N

>  <InChI>
InChI=1S/C14H21N3O3/c1-9(2)15-7-12-4-3-10-5-11(8-18)14(17(19)20)6-13(10)16-12/h5-6,9,12,15-16,18H,3-4,7-8H2,1-2H3/t12-/m0/s1

>  <InChIKey>
XCGYUJZMCCFSRP-LBPRGKRZSA-N

>  <SMILES>
CC(C)NC[C@@H]1CCc2cc(c(cc2N1)[N+](=O)[O-])CO

$$$$
